feeders/25_SE001_1/012_cargasMT_1_1.dss
New Load.MT_101449_M1 bus1=29031.1.2.3.4 phases=3 conn=Delta model=2 kv=23.1 kw=19.573008 pf=0.92 daily=MT6_DU status=variable vmaxpu=1.5 vminpu=0.93
New Load.MT_101449_M2 bus1=29031.1.2.3.4 phases=3 conn=Delta model=3 kv=23.1 kw=19.573008 pf=0.92 daily=MT6_DU status=variable vmaxpu=1.5 vminpu=0.93
New Load.MT_137240_M1 bus1=785941.1.2.3.4 phases=3 conn=Delta model=2 kv=23.1 kw=4.755988 pf=0.92 daily=MT2_DU status=variable vmaxpu=1.5 vminpu=0.93
New Load.MT_137240_M2 bus1=785941.1.2.3.4 phases=3 conn=Delta model=3 kv=23.1 kw=4.755988 pf=0.92 daily=MT2_DU status=variable vmaxpu=1.5 vminpu=0.93
New Load.MT_2500881_M1 bus1=692501.1.2.3.4 phases=3 conn=Delta model=2 kv=23.1 kw=58.3016125 pf=0.92 daily=MT2_DU status=variable vmaxpu=1.5 vminpu=0.93
New Load.MT_2500881_M2 bus1=692501.1.2.3.4 phases=3 conn=Delta model=3 kv=23.1 kw=58.3016125 pf=0.92 daily=MT2_DU status=variable vmaxpu=1.5 vminpu=0.93
New Load.MT_2504019_M1 bus1=332261.1.2.3.4 phases=3 conn=Delta model=2 kv=23.1 kw=6.6197395 pf=0.92 daily=MT2_DU status=variable vmaxpu=1.5 vminpu=0.93
New Load.MT_2504019_M2 bus1=332261.1.2.3.4 phases=3 conn=Delta model=3 kv=23.1 kw=6.6197395 pf=0.92 daily=MT2_DU status=variable vmaxpu=1.5 vminpu=0.93
New Load.MT_2518808_M1 bus1=341721.1.2.3.4 phases=3 conn=Delta model=2 kv=23.1 kw=33.8554085 pf=0.92 daily=MT6_DU status=variable vmaxpu=1.5 vminpu=0.93
New Load.MT_2518808_M2 bus1=341721.1.2.3.4 phases=3 conn=Delta model=3 kv=23.1 kw=33.8554085 pf=0.92 daily=MT6_DU status=variable vmaxpu=1.5 vminpu=0.93
New Load.MT_2520416_M1 bus1=347611.1.2.3.4 phases=3 conn=Delta model=2 kv=23.1 kw=5.895305 pf=0.92 daily=MT3_DU status=variable vmaxpu=1.5 vminpu=0.93
New Load.MT_2520416_M2 bus1=347611.1.2.3.4 phases=3 conn=Delta model=3 kv=23.1 kw=5.895305 pf=0.92 daily=MT3_DU status=variable vmaxpu=1.5 vminpu=0.93
New Load.MT_2521108_M1 bus1=368491.1.2.3.4 phases=3 conn=Delta model=2 kv=23.1 kw=6.5053775 pf=0.92 daily=MT3_DU status=variable vmaxpu=1.5 vminpu=0.93
New Load.MT_2521108_M2 bus1=368491.1.2.3.4 phases=3 conn=Delta model=3 kv=23.1 kw=6.5053775 pf=0.92 daily=MT3_DU status=variable vmaxpu=1.5 vminpu=0.93
New Load.MT_2522126_M1 bus1=129681.1.2.3.4 phases=3 conn=Delta model=2 kv=23.1 kw=10.465038 pf=0.92 daily=MT3_DU status=variable vmaxpu=1.5 vminpu=0.93
New Load.MT_2522126_M2 bus1=129681.1.2.3.4 phases=3 conn=Delta model=3 kv=23.1 kw=10.465038 pf=0.92 daily=MT3_DU status=variable vmaxpu=1.5 vminpu=0.93
New Load.MT_2522311_M1 bus1=117361.1.2.3.4 phases=3 conn=Delta model=2 kv=23.1 kw=3.050967 pf=0.92 daily=MT5_DU status=variable vmaxpu=1.5 vminpu=0.93
New Load.MT_2522311_M2 bus1=117361.1.2.3.4 phases=3 conn=Delta model=3 kv=23.1 kw=3.050967 pf=0.92 daily=MT5_DU status=variable vmaxpu=1.5 vminpu=0.93
New Load.MT_2523537_M1 bus1=756371.1.2.3.4 phases=3 conn=Delta model=2 kv=23.1 kw=7.520239 pf=0.92 daily=MT1_DU status=variable vmaxpu=1.5 vminpu=0.93
New Load.MT_2523537_M2 bus1=756371.1.2.3.4 phases=3 conn=Delta model=3 kv=23.1 kw=7.520239 pf=0.92 daily=MT1_DU status=variable vmaxpu=1.5 vminpu=0.93
New Load.MT_2525906_M1 bus1=595411.1.2.3.4 phases=3 conn=Delta model=2 kv=23.1 kw=0.471314 pf=0.92 daily=MT3_DU status=variable vmaxpu=1.5 vminpu=0.93
New Load.MT_2525906_M2 bus1=595411.1.2.3.4 phases=3 conn=Delta model=3 kv=23.1 kw=0.471314 pf=0.92 daily=MT3_DU status=variable vmaxpu=1.5 vminpu=0.93
New Load.MT_2526359_M1 bus1=473851.1.2.3.4 phases=3 conn=Delta model=2 kv=23.1 kw=15.15953 pf=0.92 daily=MT1_DU status=variable vmaxpu=1.5 vminpu=0.93
New Load.MT_2526359_M2 bus1=473851.1.2.3.4 phases=3 conn=Delta model=3 kv=23.1 kw=15.15953 pf=0.92 daily=MT1_DU status=variable vmaxpu=1.5 vminpu=0.93
New Load.MT_2529392_M1 bus1=431851.1.2.3.4 phases=3 conn=Delta model=2 kv=23.1 kw=1.196151 pf=0.92 daily=MT4_DU status=variable vmaxpu=1.5 vminpu=0.93
New Load.MT_2529392_M2 bus1=431851.1.2.3.4 phases=3 conn=Delta model=3 kv=23.1 kw=1.196151 pf=0.92 daily=MT4_DU status=variable vmaxpu=1.5 vminpu=0.93
New Load.MT_2529587_M1 bus1=644851.1.2.3.4 phases=3 conn=Delta model=2 kv=23.1 kw=13.6742205 pf=0.92 daily=MT2_DU status=variable vmaxpu=1.5 vminpu=0.93
New Load.MT_2529587_M2 bus1=644851.1.2.3.4 phases=3 conn=Delta model=3 kv=23.1 kw=13.6742205 pf=0.92 daily=MT2_DU status=variable vmaxpu=1.5 vminpu=0.93
New Load.MT_2532821_M1 bus1=574381.1.2.3.4 phases=3 conn=Delta model=2 kv=23.1 kw=2.1203875 pf=0.92 daily=MT4_DU status=variable vmaxpu=1.5 vminpu=0.93
New Load.MT_2532821_M2 bus1=574381.1.2.3.4 phases=3 conn=Delta model=3 kv=23.1 kw=2.1203875 pf=0.92 daily=MT4_DU status=variable vmaxpu=1.5 vminpu=0.93
New Load.MT_2533530_M1 bus1=734961.1.2.3.4 phases=3 conn=Delta model=2 kv=23.1 kw=1.6699425 pf=0.92 daily=MT4_DU status=variable vmaxpu=1.5 vminpu=0.93
New Load.MT_2533530_M2 bus1=734961.1.2.3.4 phases=3 conn=Delta model=3 kv=23.1 kw=1.6699425 pf=0.92 daily=MT4_DU status=variable vmaxpu=1.5 vminpu=0.93
New Load.MT_2533665_M1 bus1=638761.1.2.3.4 phases=3 conn=Delta model=2 kv=23.1 kw=2.338742 pf=0.92 daily=MT3_DU status=variable vmaxpu=1.5 vminpu=0.93
New Load.MT_2533665_M2 bus1=638761.1.2.3.4 phases=3 conn=Delta model=3 kv=23.1 kw=2.338742 pf=0.92 daily=MT3_DU status=variable vmaxpu=1.5 vminpu=0.93
New Load.MT_2533812_M1 bus1=799231.1.2.3.4 phases=3 conn=Delta model=2 kv=23.1 kw=9.3796205 pf=0.92 daily=MT6_DU status=variable vmaxpu=1.5 vminpu=0.93
New Load.MT_2533812_M2 bus1=799231.1.2.3.4 phases=3 conn=Delta model=3 kv=23.1 kw=9.3796205 pf=0.92 daily=MT6_DU status=variable vmaxpu=1.5 vminpu=0.93
New Load.MT_2534562_M1 bus1=678691.1.2.3.4 phases=3 conn=Delta model=2 kv=23.1 kw=0.4765375 pf=0.92 daily=MT4_DU status=variable vmaxpu=1.5 vminpu=0.93
New Load.MT_2534562_M2 bus1=678691.1.2.3.4 phases=3 conn=Delta model=3 kv=23.1 kw=0.4765375 pf=0.92 daily=MT4_DU status=variable vmaxpu=1.5 vminpu=0.93
New Load.MT_2534575_M1 bus1=306691.1.2.3.4 phases=3 conn=Delta model=2 kv=23.1 kw=0.846611 pf=0.92 daily=MT5_DU status=variable vmaxpu=1.5 vminpu=0.93
New Load.MT_2534575_M2 bus1=306691.1.2.3.4 phases=3 conn=Delta model=3 kv=23.1 kw=0.846611 pf=0.92 daily=MT5_DU status=variable vmaxpu=1.5 vminpu=0.93
New Load.MT_2535253_M1 bus1=522501.1.2.3.4 phases=3 conn=Delta model=2 kv=23.1 kw=4.4058325 pf=0.92 daily=MT5_DU status=variable vmaxpu=1.5 vminpu=0.93
New Load.MT_2535253_M2 bus1=522501.1.2.3.4 phases=3 conn=Delta model=3 kv=23.1 kw=4.4058325 pf=0.92 daily=MT5_DU status=variable vmaxpu=1.5 vminpu=0.93
New Load.MT_2535771_M1 bus1=757951.1.2.3.4 phases=3 conn=Delta model=2 kv=23.1 kw=7.093136 pf=0.92 daily=MT4_DU status=variable vmaxpu=1.5 vminpu=0.93
New Load.MT_2535771_M2 bus1=757951.1.2.3.4 phases=3 conn=Delta model=3 kv=23.1 kw=7.093136 pf=0.92 daily=MT4_DU status=variable vmaxpu=1.5 vminpu=0.93
New Load.MT_2535782_M1 bus1=751841.1.2.3.4 phases=3 conn=Delta model=2 kv=23.1 kw=2.1611615 pf=0.92 daily=MT5_DU status=variable vmaxpu=1.5 vminpu=0.93
New Load.MT_2535782_M2 bus1=751841.1.2.3.4 phases=3 conn=Delta model=3 kv=23.1 kw=2.1611615 pf=0.92 daily=MT5_DU status=variable vmaxpu=1.5 vminpu=0.93
New Load.MT_2536245_M1 bus1=764891.1.2.3.4 phases=3 conn=Delta model=2 kv=23.1 kw=6.402369 pf=0.92 daily=MT2_DU status=variable vmaxpu=1.5 vminpu=0.93
New Load.MT_2536245_M2 bus1=764891.1.2.3.4 phases=3 conn=Delta model=3 kv=23.1 kw=6.402369 pf=0.92 daily=MT2_DU status=variable vmaxpu=1.5 vminpu=0.93
New Load.MT_2537331_M1 bus1=104731.1.2.3.4 phases=3 conn=Delta model=2 kv=23.1 kw=6.0601795 pf=0.92 daily=MT5_DU status=variable vmaxpu=1.5 vminpu=0.93
New Load.MT_2537331_M2 bus1=104731.1.2.3.4 phases=3 conn=Delta model=3 kv=23.1 kw=6.0601795 pf=0.92 daily=MT5_DU status=variable vmaxpu=1.5 vminpu=0.93
New Load.MT_2537870_M1 bus1=798061.1.2.3.4 phases=3 conn=Delta model=2 kv=23.1 kw=68.638915 pf=0.92 daily=MT6_DU status=variable vmaxpu=1.5 vminpu=0.93
New Load.MT_2537870_M2 bus1=798061.1.2.3.4 phases=3 conn=Delta model=3 kv=23.1 kw=68.638915 pf=0.92 daily=MT6_DU status=variable vmaxpu=1.5 vminpu=0.93
